Circuit: * C:\Users\Euge\Documents\GitHub\automotor\Simulation\sensadocorriente.asc

WARNING: Specified period is not longer than the sum of Trise, Tfall, and Ton for i1.  Increasing period to 2
Direct Newton iteration for .op point succeeded.

Date: Thu Apr 02 16:31:39 2020
Total elapsed time: 0.173 seconds.

tnom = 27
temp = 27
method = modified trap
totiter = 4730
traniter = 4707
tranpoints = 2261
accept = 2203
rejected = 58
matrix size = 39
fillins = 40
solver = Normal
Matrix Compiler1: 3.72 KB object code size  1.1/0.5/[0.3]
Matrix Compiler2: off  [0.4]/0.5/0.6


